This is file5.txt created in newFeature branch
New line.
This is a new line in a fork pull request.
